TheveninEquivalent_VLN_Node.Txt

LINE-GROUND and LINE-LINE VOLTAGES BY BUS & NODE

Bus  Node    VLN (kV)   Angle      pu     Base kV    Node-Node   VLL (kV)  Angle      pu

100  1        66.39 /_    0.0   0.99993   115.000        1-2     114.99 /_   30.0   0.99993
   - 2        66.39 /_ -120.0   0.99993   115.000        2-3     114.99 /_  -90.0   0.99993
   - 3        66.39 /_  120.0   0.99993   115.000        3-1     114.99 /_  150.0   0.99993
200  1       2.3986 /_  -30.1    0.9987     4.160        1-2     4.1546 /_   -0.1    0.9987
   - 2       2.3986 /_ -150.1    0.9987     4.160        2-3     4.1546 /_ -120.1    0.9987
   - 3       2.3986 /_   89.9    0.9987     4.160        3-1     4.1546 /_  119.9    0.9987
